*Heading
** Job name: QuarterEllipse_push_gammahat5em2 Model name: QuarterEllipse_push_gammahat5em2
** Generated by: Abaqus/CAE 2024
*Preprint, echo=NO, model=NO, history=NO, contact=NO
**
** PARTS
**
*Part, name=Part-1
*Node
      1,   3.45000005,           0.,           0.
      2,           0.,    2.8499999,           0.
      3,           0.,           3.,           0.
      4,    3.5999999,           0.,           0.
      5,           0.,    2.8499999,  0.100000001
      6,           0.,           3.,  0.100000001
      7,    3.5999999,           0.,  0.100000001
      8,   3.45000005,           0.,  0.100000001
      9,           0.,           0.,  0.100000001
     10,           0.,           0., 1.49011614e-09
     11,   3.44989395, 0.0223385487,           0.
     12,   3.44957614,  0.044675108,           0.
     13,   3.44904637, 0.0670076534,           0.
     14,   3.44830465, 0.0893341377,           0.
     15,   3.44735146,   0.11165259,           0.
     16,   3.44618678,  0.133961022,           0.
     17,   3.44481063,  0.156257436,           0.
     18,   3.44322371,  0.178539783,           0.
     19,    3.4414258,  0.200806126,           0.
     20,    3.4394176,  0.223054469,           0.
** ... 44812 like lines cut
*Element, type=C3D8R
   1,   926,  3795, 17093,  3747,     1,    11,  1095,   464
   2,  3795,  3796, 17094, 17093,    11,    12,  1096,  1095
   3,  3796,  3797, 17095, 17094,    12,    13,  1097,  1096
   4,  3797,  3798, 17096, 17095,    13,    14,  1098,  1097
   5,  3798,  3799, 17097, 17096,    14,    15,  1099,  1098
   6,  3799,  3800, 17098, 17097,    15,    16,  1100,  1099
   7,  3800,  3801, 17099, 17098,    16,    17,  1101,  1100
   8,  3801,  3802, 17100, 17099,    17,    18,  1102,  1101
   9,  3802,  3803, 17101, 17100,    18,    19,  1103,  1102
  10,  3803,  3804, 17102, 17101,    19,    20,  1104,  1103
  11,  3804,  3805, 17103, 17102,    20,    21,  1105,  1104
  12,  3805,  3806, 17104, 17103,    21,    22,  1106,  1105
  13,  3806,  3807, 17105, 17104,    22,    23,  1107,  1106
  14,  3807,  3808, 17106, 17105,    23,    24,  1108,  1107
  15,  3808,  3809, 17107, 17106,    24,    25,  1109,  1108
  16,  3809,  3810, 17108, 17107,    25,    26,  1110,  1109
  17,  3810,  3811, 17109, 17108,    26,    27,  1111,  1110
  18,  3811,  3812, 17110, 17109,    27,    28,  1112,  1111
  19,  3812,  3813, 17111, 17110,    28,    29,  1113,  1112
  20,  3813,  3814, 17112, 17111,    29,    30,  1114,  1113
** ... 36545 like lines cut
*Nset, nset=Subcortex
     1,     2,     5,     8,     9,    10,    11,    12,    13,    14,    15,    16,    17,    18,    19,    20
    21,    22,    23,    24,    25,    26,    27,    28,    29,    30,    31,    32,    33,    34,    35,    36
    37,    38,    39,    40,    41,    42,    43,    44,    45,    46,    47,    48,    49,    50,    51,    52
    53,    54,    55,    56,    57,    58,    59,    60,    61,    62,    63,    64,    65,    66,    67,    68
    69,    70,    71,    72,    73,    74,    75,    76,    77,    78,    79,    80,    81,    82,    83,    84
    85,    86,    87,    88,    89,    90,    91,    92,    93,    94,    95,    96,    97,    98,    99,   100
   101,   102,   103,   104,   105,   106,   107,   108,   109,   110,   111,   112,   113,   114,   115,   116
   117,   118,   119,   120,   121,   122,   123,   124,   125,   126,   127,   128,   129,   130,   131,   132
   133,   134,   135,   136,   137,   138,   139,   140,   141,   142,   143,   144,   145,   146,   147,   148
   149,   150,   151,   152,   153,   154,   155,   156,   157,   158,   159,   160,   161,   162,   163,   164
   165,   166,   167,   168,   169,   170,   171,   172,   173,   174,   175,   176,   177,   178,   179,   180
   181,   182,   183,   184,   185,   186,   187,   188,   189,   190,   191,   192,   193,   194,   195,   196
   197,   198,   199,   200,   201,   202,   203,   204,   205,   206,   207,   208,   209,   210,   211,   212
   213,   214,   215,   216,   217,   218,   219,   220,   221,   222,   223,   224,   225,   226,   227,   228
   229,   230,   231,   465,   466,   467,   468,   469,   470,   471,   472,   473,   474,   475,   476,   477
   478,   479,   480,   481,   482,   483,   484,   485,   486,   487,   488,   489,   490,   491,   492,   493
   494,   495,   496,   497,   498,   499,   500,   501,   502,   503,   504,   505,   506,   507,   508,   509
   510,   511,   512,   513,   514,   515,   516,   517,   518,   519,   520,   521,   522,   523,   524,   525
   526,   527,   528,   529,   530,   531,   532,   533,   534,   535,   536,   537,   538,   539,   540,   541
   542,   543,   544,   545,   546,   547,   548,   549,   550,   551,   552,   553,   554,   555,   556,   557
** ... 2197 like lines cut
*Elset, elset=Subcortex, generate
  7771,  36565,      1
*Nset, nset=Cortex
     1,     2,     3,     4,     5,     6,     7,     8,    11,    12,    13,    14,    15,    16,    17,    18
    19,    20,    21,    22,    23,    24,    25,    26,    27,    28,    29,    30,    31,    32,    33,    34
    35,    36,    37,    38,    39,    40,    41,    42,    43,    44,    45,    46,    47,    48,    49,    50
    51,    52,    53,    54,    55,    56,    57,    58,    59,    60,    61,    62,    63,    64,    65,    66
    67,    68,    69,    70,    71,    72,    73,    74,    75,    76,    77,    78,    79,    80,    81,    82
    83,    84,    85,    86,    87,    88,    89,    90,    91,    92,    93,    94,    95,    96,    97,    98
    99,   100,   101,   102,   103,   104,   105,   106,   107,   108,   109,   110,   111,   112,   113,   114
   115,   116,   117,   118,   119,   120,   121,   122,   123,   124,   125,   126,   127,   128,   129,   130
   131,   132,   133,   134,   135,   136,   137,   138,   139,   140,   141,   142,   143,   144,   145,   146
   147,   148,   149,   150,   151,   152,   153,   154,   155,   156,   157,   158,   159,   160,   161,   162
   163,   164,   165,   166,   167,   168,   169,   170,   171,   172,   173,   174,   175,   176,   177,   178
   179,   180,   181,   182,   183,   184,   185,   186,   187,   188,   189,   190,   191,   192,   193,   194
   195,   196,   197,   198,   199,   200,   201,   202,   203,   204,   205,   206,   207,   208,   209,   210
   211,   212,   213,   214,   215,   216,   217,   218,   219,   220,   221,   222,   223,   224,   225,   226
   227,   228,   229,   230,   231,   232,   233,   234,   235,   236,   237,   238,   239,   240,   241,   242
   243,   244,   245,   246,   247,   248,   249,   250,   251,   252,   253,   254,   255,   256,   257,   258
   259,   260,   261,   262,   263,   264,   265,   266,   267,   268,   269,   270,   271,   272,   273,   274
   275,   276,   277,   278,   279,   280,   281,   282,   283,   284,   285,   286,   287,   288,   289,   290
   291,   292,   293,   294,   295,   296,   297,   298,   299,   300,   301,   302,   303,   304,   305,   306
   307,   308,   309,   310,   311,   312,   313,   314,   315,   316,   317,   318,   319,   320,   321,   322
** ... 649 like lines cut
*Elset, elset=Cortex, generate
    1,  7770,     1
*Nset, nset=back
     1,     2,     3,     4,    10,    11,    12,    13,    14,    15,    16,    17,    18,    19,    20,    21
    22,    23,    24,    25,    26,    27,    28,    29,    30,    31,    32,    33,    34,    35,    36,    37
    38,    39,    40,    41,    42,    43,    44,    45,    46,    47,    48,    49,    50,    51,    52,    53
    54,    55,    56,    57,    58,    59,    60,    61,    62,    63,    64,    65,    66,    67,    68,    69
    70,    71,    72,    73,    74,    75,    76,    77,    78,    79,    80,    81,    82,    83,    84,    85
    86,    87,    88,    89,    90,    91,    92,    93,    94,    95,    96,    97,    98,    99,   100,   101
   102,   103,   104,   105,   106,   107,   108,   109,   110,   111,   112,   113,   114,   115,   116,   117
   118,   119,   120,   121,   122,   123,   124,   125,   126,   127,   128,   129,   130,   131,   132,   133
   134,   135,   136,   137,   138,   139,   140,   141,   142,   143,   144,   145,   146,   147,   148,   149
   150,   151,   152,   153,   154,   155,   156,   157,   158,   159,   160,   161,   162,   163,   164,   165
   166,   167,   168,   169,   170,   171,   172,   173,   174,   175,   176,   177,   178,   179,   180,   181
   182,   183,   184,   185,   186,   187,   188,   189,   190,   191,   192,   193,   194,   195,   196,   197
   198,   199,   200,   201,   202,   203,   204,   205,   206,   207,   208,   209,   210,   211,   212,   213
   214,   215,   216,   217,   218,   219,   220,   221,   222,   223,   224,   225,   226,   227,   228,   229
   230,   231,   232,   233,   234,   235,   236,   237,   238,   239,   240,   241,   242,   243,   244,   245
   246,   247,   248,   249,   250,   251,   252,   253,   254,   255,   256,   257,   258,   259,   260,   261
   262,   263,   264,   265,   266,   267,   268,   269,   270,   271,   272,   273,   274,   275,   276,   277
   278,   279,   280,   281,   282,   283,   284,   285,   286,   287,   288,   289,   290,   291,   292,   293
   294,   295,   296,   297,   298,   299,   300,   301,   302,   303,   304,   305,   306,   307,   308,   309
   310,   311,   312,   313,   314,   315,   316,   317,   318,   319,   320,   321,   322,   323,   324,   325
** ... 447 like lines cut
*Elset, elset=back
     1,     2,     3,     4,     5,     6,     7,     8,     9,    10,    11,    12,    13,    14,    15,    16
    17,    18,    19,    20,    21,    22,    23,    24,    25,    26,    27,    28,    29,    30,    31,    32
    33,    34,    35,    36,    37,    38,    39,    40,    41,    42,    43,    44,    45,    46,    47,    48
    49,    50,    51,    52,    53,    54,    55,    56,    57,    58,    59,    60,    61,    62,    63,    64
    65,    66,    67,    68,    69,    70,    71,    72,    73,    74,    75,    76,    77,    78,    79,    80
    81,    82,    83,    84,    85,    86,    87,    88,    89,    90,    91,    92,    93,    94,    95,    96
    97,    98,    99,   100,   101,   102,   103,   104,   105,   106,   107,   108,   109,   110,   111,   112
   113,   114,   115,   116,   117,   118,   119,   120,   121,   122,   123,   124,   125,   126,   127,   128
   129,   130,   131,   132,   133,   134,   135,   136,   137,   138,   139,   140,   141,   142,   143,   144
   145,   146,   147,   148,   149,   150,   151,   152,   153,   154,   155,   156,   157,   158,   159,   160
   161,   162,   163,   164,   165,   166,   167,   168,   169,   170,   171,   172,   173,   174,   175,   176
   177,   178,   179,   180,   181,   182,   183,   184,   185,   186,   187,   188,   189,   190,   191,   192
   193,   194,   195,   196,   197,   198,   199,   200,   201,   202,   203,   204,   205,   206,   207,   208
   209,   210,   211,   212,   213,   214,   215,   216,   217,   218,   219,   220,   221,   222,   223,   224
   225,   226,   227,   228,   229,   230,   231,   232,   233,   234,   235,   236,   237,   238,   239,   240
   241,   242,   243,   244,   245,   246,   247,   248,   249,   250,   251,   252,   253,   254,   255,   256
   257,   258,   259,   260,   261,   262,   263,   264,   265,   266,   267,   268,   269,   270,   271,   272
   273,   274,   275,   276,   277,   278,   279,   280,   281,   282,   283,   284,   285,   286,   287,   288
   289,   290,   291,   292,   293,   294,   295,   296,   297,   298,   299,   300,   301,   302,   303,   304
   305,   306,   307,   308,   309,   310,   311,   312,   313,   314,   315,   316,   317,   318,   319,   320
** ... 438 like lines cut
*Nset, nset=bottom
     1,     4,     7,     8,     9,    10,   459,   460,   461,   462,   463,   464,   913,   914,   915,   916
   917,   918,   919,   920,   921,   922,   923,   924,   925,   926,   935,   936,   937,   938,   939,   940
   941,   942,   943,   944,   945,   946,   947,   948,   949,   950,   951,   952,   953,   954,   955,   956
   957,   958,   959,   960,   961,   962,   963,   964,   965,   966,   967,   968,   969,   970,   971,   972
   973,   974,   975,   976,   977,  1013,  1014,  1015,  1016,  1017,  1018,  1019,  1020,  1021,  1022,  1023
  1024,  1025,  1026,  1027,  1028,  1029,  1030,  1031,  1032,  1033,  1034,  1035,  1036,  1037,  1038,  1039
  1040,  1041,  1042,  1043,  1044,  1045,  1046,  1047,  1048,  1049,  1050,  1051,  1052,  1053,  1054,  1055
  1056,  1057,  1058,  1059,  3747,  3748,  3749,  3750,  3751,  3752,  3753,  3754,  3755,  3756,  3757,  3758
  3759,  3760,  3761,  3762,  3763,  3764,  3765,  3766,  3767,  3768,  3769,  3770, 16921, 16922, 16923, 16924
 16925, 16926, 16927, 16928, 16929, 16930, 16931, 16932, 16933, 16934, 16935, 16936, 16937, 16938, 16939, 16940
 16941, 16942, 16943, 16944, 16945, 16946, 16947, 16948, 16949, 16950, 16951, 16952, 16953, 16954, 16955, 16956
 16957, 16958, 16959, 16960, 16961, 16962, 16963, 16964, 16965, 16966, 16967, 16968, 16969, 16970, 16971, 16972
 16973, 16974, 16975, 16976, 16977, 16978, 16979, 16980, 16981, 16982, 16983, 16984, 16985, 16986, 16987, 16988
 16989, 16990, 16991, 16992, 16993, 16994, 16995, 16996, 16997, 16998, 16999, 17000, 17001, 17002, 17003, 17004
 17005, 17006, 17007, 17008, 17009, 17010, 17011, 17012, 17013, 17014, 17015, 17016, 17017, 17018, 17019, 17020
 17021, 17022, 17023, 17024, 17025, 17026, 17027, 17028, 17029, 17030, 17031, 17032, 17033, 17034, 17035, 17036
 17037, 17038, 17039, 17040, 17041, 17042, 17043, 17044, 17045, 17046, 17047, 17048, 17049, 17050, 17051, 17052
 17053, 17054, 17055, 17056, 17057, 17058, 17059, 17060, 17061, 17062, 17063, 17064, 17065, 17066, 17067, 17068
 17069, 17070, 17071, 17072, 17073, 17074, 17075, 17076, 17077, 17078, 17079, 17080, 17081, 17082, 17083, 17084
 17085, 17086, 17087, 17088, 17089, 17090, 17091, 17092
*Elset, elset=bottom
     1,   223,   445,   667,   889,  1111,  1333,  1555,  1777,  1999,  2221,  2443,  2665,  2887,  3109,  3331
  3553,  3775,  3997,  4219,  4441,  4663,  4885,  5107,  5329,  5551,  5773,  5995,  6217,  6439,  6661,  6883
  7105,  7327,  7549,  7809,  7810,  7811,  7813,  7814,  7816,  7818,  7819,  7822,  7824,  7826,  7829,  7887
  7888,  7889,  7892,  7998,  8001,  8002,  8004,  8005,  8006,  8007,  8008,  8009,  8010,  8011,  8012,  8013
  8014,  8015,  8016,  8017,  8018,  8019,  8020,  8021,  8022,  8023,  8024,  8026,  8028,  8210, 13362, 13568
 13569, 13570, 13572, 13573, 13575, 13577, 13578, 13581, 13583, 13585, 13588, 13646, 13647, 13648, 13651, 13757
 13760, 13761, 13763, 13764, 13765, 13766, 13767, 13768, 13769, 13770, 13771, 13772, 13773, 13774, 13775, 13776
 13777, 13778, 13779, 13780, 13781, 13782, 13783, 13785, 13787, 13969, 19121, 19327, 19328, 19329, 19331, 19332
 19334, 19336, 19337, 19340, 19342, 19344, 19347, 19405, 19406, 19407, 19410, 19516, 19519, 19520, 19522, 19523
 19524, 19525, 19526, 19527, 19528, 19529, 19530, 19531, 19532, 19533, 19534, 19535, 19536, 19537, 19538, 19539
 19540, 19541, 19542, 19544, 19546, 19728, 24880, 25086, 25087, 25088, 25090, 25091, 25093, 25095, 25096, 25099
 25101, 25103, 25106, 25164, 25165, 25166, 25169, 25275, 25278, 25279, 25281, 25282, 25283, 25284, 25285, 25286
 25287, 25288, 25289, 25290, 25291, 25292, 25293, 25294, 25295, 25296, 25297, 25298, 25299, 25300, 25301, 25303
 25305, 25487, 30639, 30845, 30846, 30847, 30849, 30850, 30852, 30854, 30855, 30858, 30860, 30862, 30865, 30923
 30924, 30925, 30928, 31034, 31037, 31038, 31040, 31041, 31042, 31043, 31044, 31045, 31046, 31047, 31048, 31049
 31050, 31051, 31052, 31053, 31054, 31055, 31056, 31057, 31058, 31059, 31060, 31062, 31064, 31246, 36398
*Nset, nset=side-1
     2,     3,     5,     6,     9,    10,   232,   233,   234,   235,   236,   237,   686,   687,   688,   689
   690,   691,   927,   928,   929,   930,   931,   932,   933,   934,   978,   979,   980,   981,   982,   983
   984,   985,   986,   987,   988,   989,   990,   991,   992,   993,   994,   995,   996,   997,   998,   999
  1000,  1001,  1002,  1003,  1004,  1005,  1006,  1007,  1008,  1009,  1010,  1011,  1012,  1013,  1014,  1015
  1016,  1060,  1061,  1062,  1063,  1064,  1065,  1066,  1067,  1068,  1069,  1070,  1071,  1072,  1073,  1074
  1075,  1076,  1077,  1078,  1079,  1080,  1081,  1082,  1083,  1084,  1085,  1086,  1087,  1088,  1089,  1090
  1091,  1092,  1093,  1094,  3771,  3772,  3773,  3774,  3775,  3776,  3777,  3778,  3779,  3780,  3781,  3782
  3783,  3784,  3785,  3786,  3787,  3788,  3789,  3790,  3791,  3792,  3793,  3794, 16781, 16782, 16783, 16784
 16785, 16786, 16787, 16788, 16789, 16790, 16791, 16792, 16793, 16794, 16795, 16796, 16797, 16798, 16799, 16800
 16801, 16802, 16803, 16804, 16805, 16806, 16807, 16808, 16809, 16810, 16811, 16812, 16813, 16814, 16815, 16816
 16817, 16818, 16819, 16820, 16821, 16822, 16823, 16824, 16825, 16826, 16827, 16828, 16829, 16830, 16831, 16832
 16833, 16834, 16835, 16836, 16837, 16838, 16839, 16840, 16841, 16842, 16843, 16844, 16845, 16846, 16847, 16848
 16849, 16850, 16851, 16852, 16853, 16854, 16855, 16856, 16857, 16858, 16859, 16860, 16861, 16862, 16863, 16864
 16865, 16866, 16867, 16868, 16869, 16870, 16871, 16872, 16873, 16874, 16875, 16876, 16877, 16878, 16879, 16880
 16881, 16882, 16883, 16884, 16885, 16886, 16887, 16888, 16889, 16890, 16891, 16892, 16893, 16894, 16895, 16896
 16897, 16898, 16899, 16900, 16901, 16902, 16903, 16904, 16905, 16906, 16907, 16908, 16909, 16910, 16911, 16912
 16913, 16914, 16915, 16916, 16917, 16918, 16919, 16920
*Elset, elset=side-1
   222,   444,   666,   888,  1110,  1332,  1554,  1776,  1998,  2220,  2442,  2664,  2886,  3108,  3330,  3552
  3774,  3996,  4218,  4440,  4662,  4884,  5106,  5328,  5550,  5772,  5994,  6216,  6438,  6660,  6882,  7104
  7326,  7548,  7770,  7771,  7809,  7833,  7863,  7871,  7883,  7885,  7997,  8186,  8187,  8189,  8190,  8191
  8192,  8193,  8194,  8195,  8196,  8197,  8198,  8199,  8200,  8201,  8202,  8203,  8204,  8206,  8207,  8461
  8471,  8704,  8705,  8706, 13357, 13363, 13365, 13530, 13568, 13592, 13622, 13630, 13642, 13644, 13756, 13945
 13946, 13948, 13949, 13950, 13951, 13952, 13953, 13954, 13955, 13956, 13957, 13958, 13959, 13960, 13961, 13962
 13963, 13965, 13966, 14220, 14230, 14463, 14464, 14465, 19116, 19122, 19124, 19289, 19327, 19351, 19381, 19389
 19401, 19403, 19515, 19704, 19705, 19707, 19708, 19709, 19710, 19711, 19712, 19713, 19714, 19715, 19716, 19717
 19718, 19719, 19720, 19721, 19722, 19724, 19725, 19979, 19989, 20222, 20223, 20224, 24875, 24881, 24883, 25048
 25086, 25110, 25140, 25148, 25160, 25162, 25274, 25463, 25464, 25466, 25467, 25468, 25469, 25470, 25471, 25472
 25473, 25474, 25475, 25476, 25477, 25478, 25479, 25480, 25481, 25483, 25484, 25738, 25748, 25981, 25982, 25983
 30634, 30640, 30642, 30807, 30845, 30869, 30899, 30907, 30919, 30921, 31033, 31222, 31223, 31225, 31226, 31227
 31228, 31229, 31230, 31231, 31232, 31233, 31234, 31235, 31236, 31237, 31238, 31239, 31240, 31242, 31243, 31497
 31507, 31740, 31741, 31742, 36393, 36399, 36401
*Nset, nset=side-2
     1,     4,     7,     8,     9,    10,   459,   460,   461,   462,   463,   464,   913,   914,   915,   916
   917,   918,   919,   920,   921,   922,   923,   924,   925,   926,   935,   936,   937,   938,   939,   940
   941,   942,   943,   944,   945,   946,   947,   948,   949,   950,   951,   952,   953,   954,   955,   956
   957,   958,   959,   960,   961,   962,   963,   964,   965,   966,   967,   968,   969,   970,   971,   972
   973,   974,   975,   976,   977,  1013,  1014,  1015,  1016,  1017,  1018,  1019,  1020,  1021,  1022,  1023
  1024,  1025,  1026,  1027,  1028,  1029,  1030,  1031,  1032,  1033,  1034,  1035,  1036,  1037,  1038,  1039
  1040,  1041,  1042,  1043,  1044,  1045,  1046,  1047,  1048,  1049,  1050,  1051,  1052,  1053,  1054,  1055
  1056,  1057,  1058,  1059,  3747,  3748,  3749,  3750,  3751,  3752,  3753,  3754,  3755,  3756,  3757,  3758
  3759,  3760,  3761,  3762,  3763,  3764,  3765,  3766,  3767,  3768,  3769,  3770, 16921, 16922, 16923, 16924
 16925, 16926, 16927, 16928, 16929, 16930, 16931, 16932, 16933, 16934, 16935, 16936, 16937, 16938, 16939, 16940
 16941, 16942, 16943, 16944, 16945, 16946, 16947, 16948, 16949, 16950, 16951, 16952, 16953, 16954, 16955, 16956
 16957, 16958, 16959, 16960, 16961, 16962, 16963, 16964, 16965, 16966, 16967, 16968, 16969, 16970, 16971, 16972
 16973, 16974, 16975, 16976, 16977, 16978, 16979, 16980, 16981, 16982, 16983, 16984, 16985, 16986, 16987, 16988
 16989, 16990, 16991, 16992, 16993, 16994, 16995, 16996, 16997, 16998, 16999, 17000, 17001, 17002, 17003, 17004
 17005, 17006, 17007, 17008, 17009, 17010, 17011, 17012, 17013, 17014, 17015, 17016, 17017, 17018, 17019, 17020
 17021, 17022, 17023, 17024, 17025, 17026, 17027, 17028, 17029, 17030, 17031, 17032, 17033, 17034, 17035, 17036
 17037, 17038, 17039, 17040, 17041, 17042, 17043, 17044, 17045, 17046, 17047, 17048, 17049, 17050, 17051, 17052
 17053, 17054, 17055, 17056, 17057, 17058, 17059, 17060, 17061, 17062, 17063, 17064, 17065, 17066, 17067, 17068
 17069, 17070, 17071, 17072, 17073, 17074, 17075, 17076, 17077, 17078, 17079, 17080, 17081, 17082, 17083, 17084
 17085, 17086, 17087, 17088, 17089, 17090, 17091, 17092
*Elset, elset=side-2
     1,   223,   445,   667,   889,  1111,  1333,  1555,  1777,  1999,  2221,  2443,  2665,  2887,  3109,  3331
  3553,  3775,  3997,  4219,  4441,  4663,  4885,  5107,  5329,  5551,  5773,  5995,  6217,  6439,  6661,  6883
  7105,  7327,  7549,  7809,  7810,  7811,  7813,  7814,  7816,  7818,  7819,  7822,  7824,  7826,  7829,  7887
  7888,  7889,  7892,  7998,  8001,  8002,  8004,  8005,  8006,  8007,  8008,  8009,  8010,  8011,  8012,  8013
  8014,  8015,  8016,  8017,  8018,  8019,  8020,  8021,  8022,  8023,  8024,  8026,  8028,  8210, 13362, 13568
 13569, 13570, 13572, 13573, 13575, 13577, 13578, 13581, 13583, 13585, 13588, 13646, 13647, 13648, 13651, 13757
 13760, 13761, 13763, 13764, 13765, 13766, 13767, 13768, 13769, 13770, 13771, 13772, 13773, 13774, 13775, 13776
 13777, 13778, 13779, 13780, 13781, 13782, 13783, 13785, 13787, 13969, 19121, 19327, 19328, 19329, 19331, 19332
 19334, 19336, 19337, 19340, 19342, 19344, 19347, 19405, 19406, 19407, 19410, 19516, 19519, 19520, 19522, 19523
 19524, 19525, 19526, 19527, 19528, 19529, 19530, 19531, 19532, 19533, 19534, 19535, 19536, 19537, 19538, 19539
 19540, 19541, 19542, 19544, 19546, 19728, 24880, 25086, 25087, 25088, 25090, 25091, 25093, 25095, 25096, 25099
 25101, 25103, 25106, 25164, 25165, 25166, 25169, 25275, 25278, 25279, 25281, 25282, 25283, 25284, 25285, 25286
 25287, 25288, 25289, 25290, 25291, 25292, 25293, 25294, 25295, 25296, 25297, 25298, 25299, 25300, 25301, 25303
 25305, 25487, 30639, 30845, 30846, 30847, 30849, 30850, 30852, 30854, 30855, 30858, 30860, 30862, 30865, 30923
 30924, 30925, 30928, 31034, 31037, 31038, 31040, 31041, 31042, 31043, 31044, 31045, 31046, 31047, 31048, 31049
 31050, 31051, 31052, 31053, 31054, 31055, 31056, 31057, 31058, 31059, 31060, 31062, 31064, 31246, 36398
*Nset, nset=cortex_front
    5,    6,    7,    8,  465,  466,  467,  468,  469,  470,  471,  472,  473,  474,  475,  476
  477,  478,  479,  480,  481,  482,  483,  484,  485,  486,  487,  488,  489,  490,  491,  492
  493,  494,  495,  496,  497,  498,  499,  500,  501,  502,  503,  504,  505,  506,  507,  508
  509,  510,  511,  512,  513,  514,  515,  516,  517,  518,  519,  520,  521,  522,  523,  524
  525,  526,  527,  528,  529,  530,  531,  532,  533,  534,  535,  536,  537,  538,  539,  540
  541,  542,  543,  544,  545,  546,  547,  548,  549,  550,  551,  552,  553,  554,  555,  556
  557,  558,  559,  560,  561,  562,  563,  564,  565,  566,  567,  568,  569,  570,  571,  572
  573,  574,  575,  576,  577,  578,  579,  580,  581,  582,  583,  584,  585,  586,  587,  588
  589,  590,  591,  592,  593,  594,  595,  596,  597,  598,  599,  600,  601,  602,  603,  604
  605,  606,  607,  608,  609,  610,  611,  612,  613,  614,  615,  616,  617,  618,  619,  620
  621,  622,  623,  624,  625,  626,  627,  628,  629,  630,  631,  632,  633,  634,  635,  636
  637,  638,  639,  640,  641,  642,  643,  644,  645,  646,  647,  648,  649,  650,  651,  652
  653,  654,  655,  656,  657,  658,  659,  660,  661,  662,  663,  664,  665,  666,  667,  668
  669,  670,  671,  672,  673,  674,  675,  676,  677,  678,  679,  680,  681,  682,  683,  684
  685,  686,  687,  688,  689,  690,  691,  692,  693,  694,  695,  696,  697,  698,  699,  700
  701,  702,  703,  704,  705,  706,  707,  708,  709,  710,  711,  712,  713,  714,  715,  716
  717,  718,  719,  720,  721,  722,  723,  724,  725,  726,  727,  728,  729,  730,  731,  732
  733,  734,  735,  736,  737,  738,  739,  740,  741,  742,  743,  744,  745,  746,  747,  748
  749,  750,  751,  752,  753,  754,  755,  756,  757,  758,  759,  760,  761,  762,  763,  764
  765,  766,  767,  768,  769,  770,  771,  772,  773,  774,  775,  776,  777,  778,  779,  780
** ... 92 like lines cut
*Elset, elset=cortex_front, generate
 6217,  7770,     1
*Nset, nset=subcortex_front
     5,     8,     9,   465,   466,   467,   468,   469,   470,   471,   472,   473,   474,   475,   476,   477
   478,   479,   480,   481,   482,   483,   484,   485,   486,   487,   488,   489,   490,   491,   492,   493
   494,   495,   496,   497,   498,   499,   500,   501,   502,   503,   504,   505,   506,   507,   508,   509
   510,   511,   512,   513,   514,   515,   516,   517,   518,   519,   520,   521,   522,   523,   524,   525
   526,   527,   528,   529,   530,   531,   532,   533,   534,   535,   536,   537,   538,   539,   540,   541
   542,   543,   544,   545,   546,   547,   548,   549,   550,   551,   552,   553,   554,   555,   556,   557
   558,   559,   560,   561,   562,   563,   564,   565,   566,   567,   568,   569,   570,   571,   572,   573
   574,   575,   576,   577,   578,   579,   580,   581,   582,   583,   584,   585,   586,   587,   588,   589
   590,   591,   592,   593,   594,   595,   596,   597,   598,   599,   600,   601,   602,   603,   604,   605
   606,   607,   608,   609,   610,   611,   612,   613,   614,   615,   616,   617,   618,   619,   620,   621
   622,   623,   624,   625,   626,   627,   628,   629,   630,   631,   632,   633,   634,   635,   636,   637
   638,   639,   640,   641,   642,   643,   644,   645,   646,   647,   648,   649,   650,   651,   652,   653
   654,   655,   656,   657,   658,   659,   660,   661,   662,   663,   664,   665,   666,   667,   668,   669
   670,   671,   672,   673,   674,   675,   676,   677,   678,   679,   680,   681,   682,   683,   684,   685
   935,   936,   937,   938,   939,   940,   941,   942,   943,   944,   945,   946,   947,   948,   949,   950
   951,   952,   953,   954,   955,   956,   957,   958,   959,   960,   961,   962,   963,   964,   965,   966
   967,   968,   969,   970,   971,   972,   973,   974,   975,   976,   977,   978,   979,   980,   981,   982
   983,   984,   985,   986,   987,   988,   989,   990,   991,   992,   993,   994,   995,   996,   997,   998
   999,  1000,  1001,  1002,  1003,  1004,  1005,  1006,  1007,  1008,  1009,  1010,  1011,  1012,  5563,  5564
  5565,  5566,  5567,  5568,  5569,  5570,  5571,  5572,  5573,  5574,  5575,  5576,  5577,  5578,  5579,  5580
** ... 350 like lines cut
*Elset, elset=subcortex_front, generate
  7771,  13529,      1
*Nset, nset=cortex_top
    3,    4,    6,    7,  238,  239,  240,  241,  242,  243,  244,  245,  246,  247,  248,  249
  250,  251,  252,  253,  254,  255,  256,  257,  258,  259,  260,  261,  262,  263,  264,  265
  266,  267,  268,  269,  270,  271,  272,  273,  274,  275,  276,  277,  278,  279,  280,  281
  282,  283,  284,  285,  286,  287,  288,  289,  290,  291,  292,  293,  294,  295,  296,  297
  298,  299,  300,  301,  302,  303,  304,  305,  306,  307,  308,  309,  310,  311,  312,  313
  314,  315,  316,  317,  318,  319,  320,  321,  322,  323,  324,  325,  326,  327,  328,  329
  330,  331,  332,  333,  334,  335,  336,  337,  338,  339,  340,  341,  342,  343,  344,  345
  346,  347,  348,  349,  350,  351,  352,  353,  354,  355,  356,  357,  358,  359,  360,  361
  362,  363,  364,  365,  366,  367,  368,  369,  370,  371,  372,  373,  374,  375,  376,  377
  378,  379,  380,  381,  382,  383,  384,  385,  386,  387,  388,  389,  390,  391,  392,  393
  394,  395,  396,  397,  398,  399,  400,  401,  402,  403,  404,  405,  406,  407,  408,  409
  410,  411,  412,  413,  414,  415,  416,  417,  418,  419,  420,  421,  422,  423,  424,  425
  426,  427,  428,  429,  430,  431,  432,  433,  434,  435,  436,  437,  438,  439,  440,  441
  442,  443,  444,  445,  446,  447,  448,  449,  450,  451,  452,  453,  454,  455,  456,  457
  458,  692,  693,  694,  695,  696,  697,  698,  699,  700,  701,  702,  703,  704,  705,  706
  707,  708,  709,  710,  711,  712,  713,  714,  715,  716,  717,  718,  719,  720,  721,  722
  723,  724,  725,  726,  727,  728,  729,  730,  731,  732,  733,  734,  735,  736,  737,  738
  739,  740,  741,  742,  743,  744,  745,  746,  747,  748,  749,  750,  751,  752,  753,  754
  755,  756,  757,  758,  759,  760,  761,  762,  763,  764,  765,  766,  767,  768,  769,  770
  771,  772,  773,  774,  775,  776,  777,  778,  779,  780,  781,  782,  783,  784,  785,  786
** ... 64 like lines cut
*Elset, elset=cortex_top
 1333, 1334, 1335, 1336, 1337, 1338, 1339, 1340, 1341, 1342, 1343, 1344, 1345, 1346, 1347, 1348
 1349, 1350, 1351, 1352, 1353, 1354, 1355, 1356, 1357, 1358, 1359, 1360, 1361, 1362, 1363, 1364
 1365, 1366, 1367, 1368, 1369, 1370, 1371, 1372, 1373, 1374, 1375, 1376, 1377, 1378, 1379, 1380
 1381, 1382, 1383, 1384, 1385, 1386, 1387, 1388, 1389, 1390, 1391, 1392, 1393, 1394, 1395, 1396
 1397, 1398, 1399, 1400, 1401, 1402, 1403, 1404, 1405, 1406, 1407, 1408, 1409, 1410, 1411, 1412
 1413, 1414, 1415, 1416, 1417, 1418, 1419, 1420, 1421, 1422, 1423, 1424, 1425, 1426, 1427, 1428
 1429, 1430, 1431, 1432, 1433, 1434, 1435, 1436, 1437, 1438, 1439, 1440, 1441, 1442, 1443, 1444
 1445, 1446, 1447, 1448, 1449, 1450, 1451, 1452, 1453, 1454, 1455, 1456, 1457, 1458, 1459, 1460
 1461, 1462, 1463, 1464, 1465, 1466, 1467, 1468, 1469, 1470, 1471, 1472, 1473, 1474, 1475, 1476
 1477, 1478, 1479, 1480, 1481, 1482, 1483, 1484, 1485, 1486, 1487, 1488, 1489, 1490, 1491, 1492
 1493, 1494, 1495, 1496, 1497, 1498, 1499, 1500, 1501, 1502, 1503, 1504, 1505, 1506, 1507, 1508
 1509, 1510, 1511, 1512, 1513, 1514, 1515, 1516, 1517, 1518, 1519, 1520, 1521, 1522, 1523, 1524
 1525, 1526, 1527, 1528, 1529, 1530, 1531, 1532, 1533, 1534, 1535, 1536, 1537, 1538, 1539, 1540
 1541, 1542, 1543, 1544, 1545, 1546, 1547, 1548, 1549, 1550, 1551, 1552, 1553, 1554, 2887, 2888
 2889, 2890, 2891, 2892, 2893, 2894, 2895, 2896, 2897, 2898, 2899, 2900, 2901, 2902, 2903, 2904
 2905, 2906, 2907, 2908, 2909, 2910, 2911, 2912, 2913, 2914, 2915, 2916, 2917, 2918, 2919, 2920
 2921, 2922, 2923, 2924, 2925, 2926, 2927, 2928, 2929, 2930, 2931, 2932, 2933, 2934, 2935, 2936
 2937, 2938, 2939, 2940, 2941, 2942, 2943, 2944, 2945, 2946, 2947, 2948, 2949, 2950, 2951, 2952
 2953, 2954, 2955, 2956, 2957, 2958, 2959, 2960, 2961, 2962, 2963, 2964, 2965, 2966, 2967, 2968
 2969, 2970, 2971, 2972, 2973, 2974, 2975, 2976, 2977, 2978, 2979, 2980, 2981, 2982, 2983, 2984
** ... 50 like lines cut
*Nset, nset=top-edge
   6,   7, 692, 693, 694, 695, 696, 697, 698, 699, 700, 701, 702, 703, 704, 705
 706, 707, 708, 709, 710, 711, 712, 713, 714, 715, 716, 717, 718, 719, 720, 721
 722, 723, 724, 725, 726, 727, 728, 729, 730, 731, 732, 733, 734, 735, 736, 737
 738, 739, 740, 741, 742, 743, 744, 745, 746, 747, 748, 749, 750, 751, 752, 753
 754, 755, 756, 757, 758, 759, 760, 761, 762, 763, 764, 765, 766, 767, 768, 769
 770, 771, 772, 773, 774, 775, 776, 777, 778, 779, 780, 781, 782, 783, 784, 785
 786, 787, 788, 789, 790, 791, 792, 793, 794, 795, 796, 797, 798, 799, 800, 801
 802, 803, 804, 805, 806, 807, 808, 809, 810, 811, 812, 813, 814, 815, 816, 817
 818, 819, 820, 821, 822, 823, 824, 825, 826, 827, 828, 829, 830, 831, 832, 833
 834, 835, 836, 837, 838, 839, 840, 841, 842, 843, 844, 845, 846, 847, 848, 849
 850, 851, 852, 853, 854, 855, 856, 857, 858, 859, 860, 861, 862, 863, 864, 865
 866, 867, 868, 869, 870, 871, 872, 873, 874, 875, 876, 877, 878, 879, 880, 881
 882, 883, 884, 885, 886, 887, 888, 889, 890, 891, 892, 893, 894, 895, 896, 897
 898, 899, 900, 901, 902, 903, 904, 905, 906, 907, 908, 909, 910, 911, 912
*Elset, elset=top-edge, generate
 7549,  7770,     1
*Nset, nset=interface
   5,   8, 465, 466, 467, 468, 469, 470, 471, 472, 473, 474, 475, 476, 477, 478
 479, 480, 481, 482, 483, 484, 485, 486, 487, 488, 489, 490, 491, 492, 493, 494
 495, 496, 497, 498, 499, 500, 501, 502, 503, 504, 505, 506, 507, 508, 509, 510
 511, 512, 513, 514, 515, 516, 517, 518, 519, 520, 521, 522, 523, 524, 525, 526
 527, 528, 529, 530, 531, 532, 533, 534, 535, 536, 537, 538, 539, 540, 541, 542
 543, 544, 545, 546, 547, 548, 549, 550, 551, 552, 553, 554, 555, 556, 557, 558
 559, 560, 561, 562, 563, 564, 565, 566, 567, 568, 569, 570, 571, 572, 573, 574
 575, 576, 577, 578, 579, 580, 581, 582, 583, 584, 585, 586, 587, 588, 589, 590
 591, 592, 593, 594, 595, 596, 597, 598, 599, 600, 601, 602, 603, 604, 605, 606
 607, 608, 609, 610, 611, 612, 613, 614, 615, 616, 617, 618, 619, 620, 621, 622
 623, 624, 625, 626, 627, 628, 629, 630, 631, 632, 633, 634, 635, 636, 637, 638
 639, 640, 641, 642, 643, 644, 645, 646, 647, 648, 649, 650, 651, 652, 653, 654
 655, 656, 657, 658, 659, 660, 661, 662, 663, 664, 665, 666, 667, 668, 669, 670
 671, 672, 673, 674, 675, 676, 677, 678, 679, 680, 681, 682, 683, 684, 685
*Elset, elset=interface
 6217, 6218, 6219, 6220, 6221, 6222, 6223, 6224, 6225, 6226, 6227, 6228, 6229, 6230, 6231, 6232
 6233, 6234, 6235, 6236, 6237, 6238, 6239, 6240, 6241, 6242, 6243, 6244, 6245, 6246, 6247, 6248
 6249, 6250, 6251, 6252, 6253, 6254, 6255, 6256, 6257, 6258, 6259, 6260, 6261, 6262, 6263, 6264
 6265, 6266, 6267, 6268, 6269, 6270, 6271, 6272, 6273, 6274, 6275, 6276, 6277, 6278, 6279, 6280
 6281, 6282, 6283, 6284, 6285, 6286, 6287, 6288, 6289, 6290, 6291, 6292, 6293, 6294, 6295, 6296
 6297, 6298, 6299, 6300, 6301, 6302, 6303, 6304, 6305, 6306, 6307, 6308, 6309, 6310, 6311, 6312
 6313, 6314, 6315, 6316, 6317, 6318, 6319, 6320, 6321, 6322, 6323, 6324, 6325, 6326, 6327, 6328
 6329, 6330, 6331, 6332, 6333, 6334, 6335, 6336, 6337, 6338, 6339, 6340, 6341, 6342, 6343, 6344
 6345, 6346, 6347, 6348, 6349, 6350, 6351, 6352, 6353, 6354, 6355, 6356, 6357, 6358, 6359, 6360
 6361, 6362, 6363, 6364, 6365, 6366, 6367, 6368, 6369, 6370, 6371, 6372, 6373, 6374, 6375, 6376
 6377, 6378, 6379, 6380, 6381, 6382, 6383, 6384, 6385, 6386, 6387, 6388, 6389, 6390, 6391, 6392
 6393, 6394, 6395, 6396, 6397, 6398, 6399, 6400, 6401, 6402, 6403, 6404, 6405, 6406, 6407, 6408
 6409, 6410, 6411, 6412, 6413, 6414, 6415, 6416, 6417, 6418, 6419, 6420, 6421, 6422, 6423, 6424
 6425, 6426, 6427, 6428, 6429, 6430, 6431, 6432, 6433, 6434, 6435, 6436, 6437, 6438, 7784, 7786
 7787, 7789, 7790, 7791, 7793, 7795, 7797, 7798, 7799, 7800, 7830, 7831, 7832, 7845, 7848, 7850
 7852, 7854, 7963, 7970, 7994, 7995, 7996, 7998, 7999, 8000, 8003, 8029, 8031, 8032, 8033, 8034
 8036, 8037, 8039, 8040, 8041, 8042, 8043, 8046, 8047, 8049, 8050, 8053, 8054, 8057, 8058, 8059
 8060, 8061, 8062, 8063, 8065, 8067, 8069, 8070, 8072, 8073, 8075, 8077, 8079, 8081, 8082, 8084
 8086, 8087, 8089, 8092, 8094, 8096, 8097, 8098, 8100, 8101, 8105, 8106, 8108, 8110, 8112, 8114
 8115, 8117, 8118, 8119, 8121, 8122, 8123, 8124, 8127, 8128, 8130, 8131, 8132, 8134, 8135, 8136
** ... 8 like lines cut
*Nset, nset=interface-edge
   5,   8, 465, 466, 467, 468, 469, 470, 471, 472, 473, 474, 475, 476, 477, 478
 479, 480, 481, 482, 483, 484, 485, 486, 487, 488, 489, 490, 491, 492, 493, 494
 495, 496, 497, 498, 499, 500, 501, 502, 503, 504, 505, 506, 507, 508, 509, 510
 511, 512, 513, 514, 515, 516, 517, 518, 519, 520, 521, 522, 523, 524, 525, 526
 527, 528, 529, 530, 531, 532, 533, 534, 535, 536, 537, 538, 539, 540, 541, 542
 543, 544, 545, 546, 547, 548, 549, 550, 551, 552, 553, 554, 555, 556, 557, 558
 559, 560, 561, 562, 563, 564, 565, 566, 567, 568, 569, 570, 571, 572, 573, 574
 575, 576, 577, 578, 579, 580, 581, 582, 583, 584, 585, 586, 587, 588, 589, 590
 591, 592, 593, 594, 595, 596, 597, 598, 599, 600, 601, 602, 603, 604, 605, 606
 607, 608, 609, 610, 611, 612, 613, 614, 615, 616, 617, 618, 619, 620, 621, 622
 623, 624, 625, 626, 627, 628, 629, 630, 631, 632, 633, 634, 635, 636, 637, 638
 639, 640, 641, 642, 643, 644, 645, 646, 647, 648, 649, 650, 651, 652, 653, 654
 655, 656, 657, 658, 659, 660, 661, 662, 663, 664, 665, 666, 667, 668, 669, 670
 671, 672, 673, 674, 675, 676, 677, 678, 679, 680, 681, 682, 683, 684, 685
*Elset, elset=interface-edge
 6217, 6218, 6219, 6220, 6221, 6222, 6223, 6224, 6225, 6226, 6227, 6228, 6229, 6230, 6231, 6232
 6233, 6234, 6235, 6236, 6237, 6238, 6239, 6240, 6241, 6242, 6243, 6244, 6245, 6246, 6247, 6248
 6249, 6250, 6251, 6252, 6253, 6254, 6255, 6256, 6257, 6258, 6259, 6260, 6261, 6262, 6263, 6264
 6265, 6266, 6267, 6268, 6269, 6270, 6271, 6272, 6273, 6274, 6275, 6276, 6277, 6278, 6279, 6280
 6281, 6282, 6283, 6284, 6285, 6286, 6287, 6288, 6289, 6290, 6291, 6292, 6293, 6294, 6295, 6296
 6297, 6298, 6299, 6300, 6301, 6302, 6303, 6304, 6305, 6306, 6307, 6308, 6309, 6310, 6311, 6312
 6313, 6314, 6315, 6316, 6317, 6318, 6319, 6320, 6321, 6322, 6323, 6324, 6325, 6326, 6327, 6328
 6329, 6330, 6331, 6332, 6333, 6334, 6335, 6336, 6337, 6338, 6339, 6340, 6341, 6342, 6343, 6344
 6345, 6346, 6347, 6348, 6349, 6350, 6351, 6352, 6353, 6354, 6355, 6356, 6357, 6358, 6359, 6360
 6361, 6362, 6363, 6364, 6365, 6366, 6367, 6368, 6369, 6370, 6371, 6372, 6373, 6374, 6375, 6376
 6377, 6378, 6379, 6380, 6381, 6382, 6383, 6384, 6385, 6386, 6387, 6388, 6389, 6390, 6391, 6392
 6393, 6394, 6395, 6396, 6397, 6398, 6399, 6400, 6401, 6402, 6403, 6404, 6405, 6406, 6407, 6408
 6409, 6410, 6411, 6412, 6413, 6414, 6415, 6416, 6417, 6418, 6419, 6420, 6421, 6422, 6423, 6424
 6425, 6426, 6427, 6428, 6429, 6430, 6431, 6432, 6433, 6434, 6435, 6436, 6437, 6438, 7784, 7786
 7787, 7789, 7790, 7791, 7793, 7795, 7797, 7798, 7799, 7800, 7830, 7831, 7832, 7845, 7848, 7850
 7852, 7854, 7963, 7970, 7994, 7995, 7996, 7998, 7999, 8000, 8003, 8029, 8031, 8032, 8033, 8034
 8036, 8037, 8039, 8040, 8041, 8042, 8043, 8046, 8047, 8049, 8050, 8053, 8054, 8057, 8058, 8059
 8060, 8061, 8062, 8063, 8065, 8067, 8069, 8070, 8072, 8073, 8075, 8077, 8079, 8081, 8082, 8084
 8086, 8087, 8089, 8092, 8094, 8096, 8097, 8098, 8100, 8101, 8105, 8106, 8108, 8110, 8112, 8114
 8115, 8117, 8118, 8119, 8121, 8122, 8123, 8124, 8127, 8128, 8130, 8131, 8132, 8134, 8135, 8136
** ... 8 like lines cut
*Nset, nset=whole-domain, generate
     1,  44832,      1
*Elset, elset=whole-domain, generate
     1,  36565,      1
*Nset, nset=node
 7,
*Elset, elset=_top_s_S5, internal
 1333, 1334, 1335, 1336, 1337, 1338, 1339, 1340, 1341, 1342, 1343, 1344, 1345, 1346, 1347, 1348
 1349, 1350, 1351, 1352, 1353, 1354, 1355, 1356, 1357, 1358, 1359, 1360, 1361, 1362, 1363, 1364
 1365, 1366, 1367, 1368, 1369, 1370, 1371, 1372, 1373, 1374, 1375, 1376, 1377, 1378, 1379, 1380
 1381, 1382, 1383, 1384, 1385, 1386, 1387, 1388, 1389, 1390, 1391, 1392, 1393, 1394, 1395, 1396
 1397, 1398, 1399, 1400, 1401, 1402, 1403, 1404, 1405, 1406, 1407, 1408, 1409, 1410, 1411, 1412
 1413, 1414, 1415, 1416, 1417, 1418, 1419, 1420, 1421, 1422, 1423, 1424, 1425, 1426, 1427, 1428
 1429, 1430, 1431, 1432, 1433, 1434, 1435, 1436, 1437, 1438, 1439, 1440, 1441, 1442, 1443, 1444
 1445, 1446, 1447, 1448, 1449, 1450, 1451, 1452, 1453, 1454, 1455, 1456, 1457, 1458, 1459, 1460
 1461, 1462, 1463, 1464, 1465, 1466, 1467, 1468, 1469, 1470, 1471, 1472, 1473, 1474, 1475, 1476
 1477, 1478, 1479, 1480, 1481, 1482, 1483, 1484, 1485, 1486, 1487, 1488, 1489, 1490, 1491, 1492
 1493, 1494, 1495, 1496, 1497, 1498, 1499, 1500, 1501, 1502, 1503, 1504, 1505, 1506, 1507, 1508
 1509, 1510, 1511, 1512, 1513, 1514, 1515, 1516, 1517, 1518, 1519, 1520, 1521, 1522, 1523, 1524
 1525, 1526, 1527, 1528, 1529, 1530, 1531, 1532, 1533, 1534, 1535, 1536, 1537, 1538, 1539, 1540
 1541, 1542, 1543, 1544, 1545, 1546, 1547, 1548, 1549, 1550, 1551, 1552, 1553, 1554, 2887, 2888
 2889, 2890, 2891, 2892, 2893, 2894, 2895, 2896, 2897, 2898, 2899, 2900, 2901, 2902, 2903, 2904
 2905, 2906, 2907, 2908, 2909, 2910, 2911, 2912, 2913, 2914, 2915, 2916, 2917, 2918, 2919, 2920
 2921, 2922, 2923, 2924, 2925, 2926, 2927, 2928, 2929, 2930, 2931, 2932, 2933, 2934, 2935, 2936
 2937, 2938, 2939, 2940, 2941, 2942, 2943, 2944, 2945, 2946, 2947, 2948, 2949, 2950, 2951, 2952
 2953, 2954, 2955, 2956, 2957, 2958, 2959, 2960, 2961, 2962, 2963, 2964, 2965, 2966, 2967, 2968
 2969, 2970, 2971, 2972, 2973, 2974, 2975, 2976, 2977, 2978, 2979, 2980, 2981, 2982, 2983, 2984
** ... 50 like lines cut
*Surface, type=ELEMENT, name=top_s
_top_s_S5, S5
*Elset, elset=_cortex_s_S1, internal, generate
 6217,  7770,     1
*Surface, type=ELEMENT, name=cortex_s
_cortex_s_S1, S1
*Elset, elset=_subcortex_s_S1, internal, generate
  7771,  13529,      1
*Surface, type=ELEMENT, name=subcortex_s
_subcortex_s_S1, S1
*Elset, elset=_side1_s_S6, internal
  7771,  7833,  7863,  7871,  7883,  7885,  7997,  8189,  8190,  8191,  8192,  8193,  8194,  8195,  8196,  8197
  8198,  8199,  8200,  8201,  8202,  8203,  8204,  8206, 13530, 13592, 13622, 13630, 13642, 13644, 13756, 13948
 13949, 13950, 13951, 13952, 13953, 13954, 13955, 13956, 13957, 13958, 13959, 13960, 13961, 13962, 13963, 13965
 19289, 19351, 19381, 19389, 19401, 19403, 19515, 19707, 19708, 19709, 19710, 19711, 19712, 19713, 19714, 19715
 19716, 19717, 19718, 19719, 19720, 19721, 19722, 19724, 25048, 25110, 25140, 25148, 25160, 25162, 25274, 25466
 25467, 25468, 25469, 25470, 25471, 25472, 25473, 25474, 25475, 25476, 25477, 25478, 25479, 25480, 25481, 25483
 30807, 30869, 30899, 30907, 30919, 30921, 31033, 31225, 31226, 31227, 31228, 31229, 31230, 31231, 31232, 31233
 31234, 31235, 31236, 31237, 31238, 31239, 31240, 31242
*Elset, elset=_side1_s_S4, internal
   222,   444,   666,   888,  1110,  1332,  1554,  1776,  1998,  2220,  2442,  2664,  2886,  3108,  3330,  3552
  3774,  3996,  4218,  4440,  4662,  4884,  5106,  5328,  5550,  5772,  5994,  6216,  6438,  6660,  6882,  7104
  7326,  7548,  7770,  7809,  8186,  8187,  8207,  8461,  8471,  8704,  8705,  8706, 13357, 13363, 13365, 13568
 13945, 13946, 13966, 14220, 14230, 14463, 14464, 14465, 19116, 19122, 19124, 19327, 19704, 19705, 19725, 19979
 19989, 20222, 20223, 20224, 24875, 24881, 24883, 25086, 25463, 25464, 25484, 25738, 25748, 25981, 25982, 25983
 30634, 30640, 30642, 30845, 31222, 31223, 31243, 31497, 31507, 31740, 31741, 31742, 36393, 36399, 36401
*Surface, type=ELEMENT, name=side1_s
_side1_s_S6, S6
_side1_s_S4, S4
*Elset, elset=_side2_s_S6, internal, generate
    1,  7549,   222
*Elset, elset=_side2_s_S3, internal
  7809,  7810,  7811,  7813,  7814,  7816,  7818,  7819,  7822,  7824,  7888,  7889,  8014,  8015,  8016,  8017
  8018,  8019,  8020,  8021,  8022,  8023,  8210, 13568, 13569, 13570, 13572, 13573, 13575, 13577, 13578, 13581
 13583, 13647, 13648, 13773, 13774, 13775, 13776, 13777, 13778, 13779, 13780, 13781, 13782, 13969, 19327, 19328
 19329, 19331, 19332, 19334, 19336, 19337, 19340, 19342, 19406, 19407, 19532, 19533, 19534, 19535, 19536, 19537
 19538, 19539, 19540, 19541, 19728, 25086, 25087, 25088, 25090, 25091, 25093, 25095, 25096, 25099, 25101, 25165
 25166, 25291, 25292, 25293, 25294, 25295, 25296, 25297, 25298, 25299, 25300, 25487, 30845, 30846, 30847, 30849
 30850, 30852, 30854, 30855, 30858, 30860, 30924, 30925, 31050, 31051, 31052, 31053, 31054, 31055, 31056, 31057
 31058, 31059, 31246
*Elset, elset=_side2_s_S5, internal
  7826,  7829,  7887,  7892,  7998,  8001,  8002,  8004,  8005,  8006,  8007,  8008,  8009,  8010,  8011,  8012
  8013,  8024,  8026,  8028, 13362, 13585, 13588, 13646, 13651, 13757, 13760, 13761, 13763, 13764, 13765, 13766
 13767, 13768, 13769, 13770, 13771, 13772, 13783, 13785, 13787, 19121, 19344, 19347, 19405, 19410, 19516, 19519
 19520, 19522, 19523, 19524, 19525, 19526, 19527, 19528, 19529, 19530, 19531, 19542, 19544, 19546, 24880, 25103
 25106, 25164, 25169, 25275, 25278, 25279, 25281, 25282, 25283, 25284, 25285, 25286, 25287, 25288, 25289, 25290
 25301, 25303, 25305, 30639, 30862, 30865, 30923, 30928, 31034, 31037, 31038, 31040, 31041, 31042, 31043, 31044
 31045, 31046, 31047, 31048, 31049, 31060, 31062, 31064, 36398
*Surface, type=ELEMENT, name=side2_s
_side2_s_S6, S6
_side2_s_S3, S3
_side2_s_S5, S5
*Elset, elset=_interface_s_S3, internal
    1,    2,    3,    4,    5,    6,    7,    8,    9,   10,   11,   12,   13,   14,   15,   16
   17,   18,   19,   20,   21,   22,   23,   24,   25,   26,   27,   28,   29,   30,   31,   32
   33,   34,   35,   36,   37,   38,   39,   40,   41,   42,   43,   44,   45,   46,   47,   48
   49,   50,   51,   52,   53,   54,   55,   56,   57,   58,   59,   60,   61,   62,   63,   64
   65,   66,   67,   68,   69,   70,   71,   72,   73,   74,   75,   76,   77,   78,   79,   80
   81,   82,   83,   84,   85,   86,   87,   88,   89,   90,   91,   92,   93,   94,   95,   96
   97,   98,   99,  100,  101,  102,  103,  104,  105,  106,  107,  108,  109,  110,  111,  112
  113,  114,  115,  116,  117,  118,  119,  120,  121,  122,  123,  124,  125,  126,  127,  128
  129,  130,  131,  132,  133,  134,  135,  136,  137,  138,  139,  140,  141,  142,  143,  144
  145,  146,  147,  148,  149,  150,  151,  152,  153,  154,  155,  156,  157,  158,  159,  160
  161,  162,  163,  164,  165,  166,  167,  168,  169,  170,  171,  172,  173,  174,  175,  176
  177,  178,  179,  180,  181,  182,  183,  184,  185,  186,  187,  188,  189,  190,  191,  192
  193,  194,  195,  196,  197,  198,  199,  200,  201,  202,  203,  204,  205,  206,  207,  208
  209,  210,  211,  212,  213,  214,  215,  216,  217,  218,  219,  220,  221,  222, 1555, 1556
 1557, 1558, 1559, 1560, 1561, 1562, 1563, 1564, 1565, 1566, 1567, 1568, 1569, 1570, 1571, 1572
 1573, 1574, 1575, 1576, 1577, 1578, 1579, 1580, 1581, 1582, 1583, 1584, 1585, 1586, 1587, 1588
 1589, 1590, 1591, 1592, 1593, 1594, 1595, 1596, 1597, 1598, 1599, 1600, 1601, 1602, 1603, 1604
 1605, 1606, 1607, 1608, 1609, 1610, 1611, 1612, 1613, 1614, 1615, 1616, 1617, 1618, 1619, 1620
 1621, 1622, 1623, 1624, 1625, 1626, 1627, 1628, 1629, 1630, 1631, 1632, 1633, 1634, 1635, 1636
 1637, 1638, 1639, 1640, 1641, 1642, 1643, 1644, 1645, 1646, 1647, 1648, 1649, 1650, 1651, 1652
** ... 50 like lines cut
*Surface, type=ELEMENT, name=interface_s
_interface_s_S3, S3
** Section: Cortex
*Solid Section, elset=Cortex, controls=EC-1, material=GRAY
,
** Section: Subcortex
*Solid Section, elset=Subcortex, controls=EC-1, material=WHIT
,
*End Part
**  
*Part, name=wall
*Node
      1, -0.200000003,          -2.,           0.
      2,           0.,          -2.,           0.
      3, -0.200000003,  -1.85000002,           0.
      4,           0.,  -1.85000002,           0.
      5, -0.200000003,  -1.70000005,           0.
      6,           0.,  -1.70000005,           0.
      7, -0.200000003,  -1.54999995,           0.
      8,           0.,  -1.54999995,           0.
      9, -0.200000003,  -1.39999998,           0.
     10,           0.,  -1.39999998,           0.
     11, -0.200000003,        -1.25,           0.
     12,           0.,        -1.25,           0.
     13, -0.200000003,  -1.10000002,           0.
     14,           0.,  -1.10000002,           0.
     15, -0.200000003, -0.949999988,           0.
     16,           0., -0.949999988,           0.
     17, -0.200000003, -0.800000012,           0.
     18,           0., -0.800000012,           0.
     19, -0.200000003, -0.649999976,           0.
     20,           0., -0.649999976,           0.
** ... 62 like lines cut
*Element, type=R3D4
 1,  1,  2,  4,  3
 2,  3,  4,  6,  5
 3,  5,  6,  8,  7
 4,  7,  8, 10,  9
 5,  9, 10, 12, 11
 6, 11, 12, 14, 13
 7, 13, 14, 16, 15
 8, 15, 16, 18, 17
 9, 17, 18, 20, 19
10, 19, 20, 22, 21
11, 21, 22, 24, 23
12, 23, 24, 26, 25
13, 25, 26, 28, 27
14, 27, 28, 30, 29
15, 29, 30, 32, 31
16, 31, 32, 34, 33
17, 33, 34, 36, 35
18, 35, 36, 38, 37
19, 37, 38, 40, 39
20, 39, 40, 42, 41
** ... 20 like lines cut
*Node
     83, -0.100000001,           1.,           0.
*Nset, nset=wall-RefPt_, internal
83, 
*Nset, nset=ref
 83,
*Elset, elset=_s_wall_SPOS, internal, generate
  1,  40,   1
*Surface, type=ELEMENT, name=s_wall
_s_wall_SPOS, SPOS
*Elset, elset=wall, generate
  1,  40,   1
*End Part
**  
**
** ASSEMBLY
**
*Assembly, name=Assembly
**  
*Instance, name=Part-1, part=Part-1
*End Instance
**  
*Instance, name=wall-1, part=wall
       -0.01,        1.425,        -0.05
       -0.01,        1.425,        -0.05,        -0.01,        2.425,        -0.05,          90.
*End Instance
**  
*Instance, name=wall-2, part=wall
        3.45,        -0.01,        -0.05
        3.45,        -0.01,        -0.05, 2.87264972044796, 0.567350279552042, 0.527350279552042, 119.999999109416
*End Instance
**  
*Rigid Body, ref node=wall-1.wall-RefPt_, elset=wall-1.wall
*Rigid Body, ref node=wall-2.wall-RefPt_, elset=wall-2.wall
*End Assembly
** 
** ELEMENT CONTROLS
** 
*Section Controls, name=EC-1, hourglass=ENHANCED
1., 1., 1.
*Amplitude, name=Amp-1
             0.,              0.,              1.,              1.
** 
** MATERIALS
** 
*Material, name=GRAY
*Density
 1e-11,
*Depvar
      7,
*User Material, constants=6
 0.002, 0.2, 1.5, 0.1, 3.6,  3.
*Material, name=WHIT
*Density
 1e-11,
*Depvar
     10,
*User Material, constants=15
 0.001,   0.1,   1.5,    1.,  0.05,   0.1,  0.45,  3.45
  2.85,   0.4,    4.,   0.4, 0.415,   10., 0.415
** 
** INTERACTION PROPERTIES
** 
*Surface Interaction, name=IntProp-1, pad thickness=0.1
*Friction
10.,
*Surface Behavior, pressure-overclosure=HARD
*Surface Interaction, name=IntProp-2
*Friction
10.,
*Surface Behavior, pressure-overclosure=HARD
** 
** BOUNDARY CONDITIONS
** 
** Name: back Type: Displacement/Rotation
*Boundary, amplitude=Amp-1
Part-1.back, 3, 3
** Name: bottom Type: Displacement/Rotation
*Boundary, amplitude=Amp-1
Part-1.bottom, 2, 2
Part-1.bottom, 3, 3
** Name: cortex_front Type: Displacement/Rotation
*Boundary, amplitude=Amp-1
Part-1.cortex_front, 3, 3
** Name: ref-left Type: Symmetry/Antisymmetry/Encastre
*Boundary
wall-1.ref, ENCASTRE
** Name: ref-right Type: Symmetry/Antisymmetry/Encastre
*Boundary
wall-2.ref, ENCASTRE
** Name: side-1 Type: Displacement/Rotation
*Boundary, amplitude=Amp-1
Part-1.side-1, 1, 1
** Name: subcortex_front Type: Displacement/Rotation
*Boundary, amplitude=Amp-1
Part-1.subcortex_front, 3, 3
** ----------------------------------------------------------------
** 
** STEP: growth
** 
*Step, name=growth, nlgeom=YES
*Dynamic, Explicit
, 1.
*Bulk Viscosity
0., 0.
** Mass Scaling: Semi-Automatic
**               Whole Model
*Fixed Mass Scaling, factor=120.
** 
** LOADS
** 
** Name: Viscous Pressure   Type: Pressure
*Dsload, amplitude=Amp-1
Part-1.top_s, VP, 1e-05
** 
** INTERACTIONS
** 
** Interaction: Int-1
*Contact Pair, interaction=IntProp-1, mechanical constraint=KINEMATIC, cpset=Int-1
Part-1.top_s,
** Interaction: Int-2
*Contact Pair, interaction=IntProp-2, mechanical constraint=KINEMATIC, cpset=Int-2
wall-1.s_wall, Part-1.top_s
** Interaction: Int-3
*Contact Pair, interaction=IntProp-2, mechanical constraint=KINEMATIC, cpset=Int-3
wall-2.s_wall, Part-1.top_s
** 
** OUTPUT REQUESTS
** 
*Restart, write, number interval=1, time marks=NO
** 
** FIELD OUTPUT: F-Output-1
** 
*Output, field, variable=PRESELECT
** 
** FIELD OUTPUT: F-Output-3
** 
*Output, field, number interval=500
*Node Output, nset=Part-1.Cortex
COORD, U
*Element Output, elset=Part-1.Cortex, directions=YES
COORD, ELSE, EVOL
** 
** FIELD OUTPUT: F-Output-4
** 
*Node Output, nset=Part-1.Subcortex
COORD, U
*Element Output, elset=Part-1.Subcortex, directions=YES
COORD, ELSE, EVOL
** 
** FIELD OUTPUT: F-Output-2
** 
*Node Output, nset=Part-1.whole-domain
COORD, U
*Element Output, elset=Part-1.whole-domain, directions=YES
COORD, ELSE, EVOL, LE, PE, S, SDV, PEEQ
** 
** HISTORY OUTPUT: H-Output-1
** 
*Output, history, time interval=0.001
*Energy Output, elset=Part-1.whole-domain
ALLIE, ALLKE
*End Step
